/*--------------------------------*- C++ -*----------------------------------*\
| =========                 |                                                 |
| \\      /  F ield         | OpenFOAM: The Open Source CFD Toolbox           |
|  \\    /   O peration     | Version:  plus                                  |
|   \\  /    A nd           | Web:      www.OpenFOAM.com                      |
|    \\/     M anipulation  |                                                 |
\*---------------------------------------------------------------------------*/
FoamFile
{
    version     2.0;
    format      ascii;
    class       dictionary;
    object      blockMeshDict;
}
// * * * * * * * * * * * * * * * * * * * * * * * * * * * * * * * * * * * * * //

scale   1;

vertices
(
		(  -0.437		-0.4	 -0.207)
    	(  0.353		-0.4	 -0.331)
        (  0.353		0.4  	 -0.331)
        (  -0.437		0.4  	 -0.207)

		(  -0.344		-0.4 	 0.387)
    	(  0.446		-0.4  	 0.263)
        (  0.446		0.4  	 0.263)
        (  -0.344		0.4  	 0.387)
);

blocks
(
    hex (0 1 2 3 4 5 6 7) (67 67 50) simpleGrading (1 1 1)
);

edges
(
);

boundary
(
    sides
    {
        type overset;
        faces
        (
            (0 3 2 1)
            (2 6 5 1)
            (0 4 7 3)
            (4 5 6 7)
	    (1 5 4 0)
	    (3 7 6 2)
        );
    }


    floatingObject
    {
        type wall;
        faces ();
    }
);

// ************************************************************************* //
