/*--------------------------------*- C++ -*----------------------------------*\
| =========                 |                                                 |
| \\      /  F ield         | OpenFOAM: The Open Source CFD Toolbox           |
|  \\    /   O peration     | Version:  plus                                  |
|   \\  /    A nd           | Web:      www.OpenFOAM.com                      |
|    \\/     M anipulation  |                                                 |
\*---------------------------------------------------------------------------*/
FoamFile
{
    version     2.0;
    format      ascii;
    class       volScalarField;
    object      p_rgh;
}
// * * * * * * * * * * * * * * * * * * * * * * * * * * * * * * * * * * * * * //

dimensions      [1 -1 -2 0 0 0 0];

internalField   uniform 0;

boundaryField
{
//    #includeEtc "caseDicts/setConstraintTypes"

    inlet
    {
        type            fixedFluxPressure;
    }

    outlet
    {
        type            fixedFluxPressure;
    }

    ground
    {
        type            fixedFluxPressure;
    }
	
    walls
    {
        type            fixedFluxPressure;
    }
	
    atmosphere
    {
        type            totalPressure;
        p0              uniform 0;
        U               U;
        phi             phi;
        rho             rho;
        psi             none;
        gamma           1;
        value           uniform 0;
    }

    floatingObject
    {
        type            fixedFluxPressure;
    }
	
    overset
    {
        type            overset;
    }

    sides
    {
		patchType		overset;
		type			fixedFluxPressure;
    }
}

// ************************************************************************* //
