/*--------------------------------*- C++ -*----------------------------------*\
| =========                 |                                                 |
| \\      /  F ield         | OpenFOAM: The Open Source CFD Toolbox           |
|  \\    /   O peration     | Version:  plus                                  |
|   \\  /    A nd           | Web:      www.OpenFOAM.com                      |
|    \\/     M anipulation  |                                                 |
\*---------------------------------------------------------------------------*/
FoamFile
{
    version     2.0;
    format      ascii;
    class       dictionary;
    object      blockMeshDict;
}
// * * * * * * * * * * * * * * * * * * * * * * * * * * * * * * * * * * * * * //

scale   1;

vertices
(
	    (  2.563		-0.4	 0.693)
    	(  3.353		-0.4	 0.569)
        (  3.353		0.4  	 0.569)
        (  2.563		0.4  	 0.693)

	    (  2.656		-0.4 	 1.287)
    	(  3.446		-0.4  	 1.163)
        (  3.446		0.4  	 1.163)
        (  2.656		0.4  	 1.287)
);

blocks
(
    hex (0 1 2 3 4 5 6 7) (67 67 50) simpleGrading (1 1 1)
);

edges
(
);

boundary
(
    sides
    {
        type overset;
        faces
        (
            (0 3 2 1)
            (2 6 5 1)
            (0 4 7 3)
            (4 5 6 7)
	    (1 5 4 0)
	    (3 7 6 2)
        );
    }


    floatingObject
    {
        type wall;
        faces ();
    }
);

// ************************************************************************* //
