/*--------------------------------*- C++ -*----------------------------------*\
| =========                 |                                                 |
| \\      /  F ield         | OpenFOAM: The Open Source CFD Toolbox           |
|  \\    /   O peration     | Version:  plus                                  |
|   \\  /    A nd           | Web:      www.OpenFOAM.com                      |
|    \\/     M anipulation  |                                                 |
\*---------------------------------------------------------------------------*/
FoamFile
{
    version     2.0;
    format      ascii;
    class       dictionary;
    object      blockMeshDict;
}
// * * * * * * * * * * * * * * * * * * * * * * * * * * * * * * * * * * * * * //

scale   1;

vertices
(
	    (  2.6		-0.4	 0.553)
    	(  3.4		-0.4	 0.553)
        (  3.4		0.4  	 0.553)
        (  2.6		0.4  	 0.553)

	    (  2.6		-0.4 	 1.292)
    	(  3.4		-0.4  	 1.292)
        (  3.4		0.4  	 1.292)
        (  2.6		0.4  	 1.292)
);

blocks
(
    hex (0 1 2 3 4 5 6 7) (67 67 61) simpleGrading (1 1 1)
);

edges
(
);

boundary
(
    sides
    {
        type overset;
        faces
        (
            (0 3 2 1)
            (2 6 5 1)
            (0 4 7 3)
            (4 5 6 7)
	    (1 5 4 0)
	    (3 7 6 2)
        );
    }


    floatingObject
    {
        type wall;
        faces ();
    }
);

// ************************************************************************* //
